  Page 1                                    Sat Nov 17 15:59:24 2018

  ******************************************************************
  *                           E P A N E T                          *
  *                   Hydraulic and Water Quality                  *
  *                   Analysis for Pipe Networks                   *
  *                         Version 2.1                            *
  ******************************************************************
  
  Generated synthetic network; 
   
      Input Data File ................... /home/varsha/Documents/musketeer/musketeer-code/output/Net1_Rossman20182018_11_17__15_57_261.inp
      Number of Junctions................ 126
      Number of Reservoirs............... 1
      Number of Tanks ................... 2
      Number of Pipes ................... 171
      Number of Pumps ................... 2
      Number of Valves .................. 0
      Headloss Formula .................. Hazen-Williams
      Hydraulic Timestep ................ 1.00 hrs
      Hydraulic Accuracy ................ 0.001000
      Status Check Frequency ............ 2
      Maximum Trials Checked ............ 10
      Damping Limit Threshold ........... 0.000000
      Maximum Trials .................... 200
      Quality Analysis .................. None
      Specific Gravity .................. 1.00
      Relative Kinematic Viscosity ...... 1.00
      Relative Chemical Diffusivity ..... 1.00
      Demand Multiplier ................. 1.00
      Total Duration .................... 24.00 hrs
      Reporting Criteria:
         No Nodes
         No Links
   
  Analysis begun Sat Nov 17 15:59:24 2018
