  Page 1                                    Mon Nov  5 12:41:42 2018

  ******************************************************************
  *                           E P A N E T                          *
  *                   Hydraulic and Water Quality                  *
  *                   Analysis for Pipe Networks                   *
  *                         Version 2.2                            *
  ******************************************************************
  
  function call contains illegal numeric value - section: [RESERVOIRS] id: R147
  
  function call contains illegal numeric value - section: [RESERVOIRS] id: R1234
  
  one or more errors in input file