  Page 1                                    Mon Nov  5 12:45:25 2018

  ******************************************************************
  *                           E P A N E T                          *
  *                   Hydraulic and Water Quality                  *
  *                   Analysis for Pipe Networks                   *
  *                         Version 2.2                            *
  ******************************************************************
  
  function call contains illegal numeric value - section: [RESERVOIRS] id: R173
  
  function call contains illegal numeric value - section: [RESERVOIRS] id: R765
  
  function call contains illegal numeric value - section: [RESERVOIRS] id: R1353
  
  one or more errors in input file