  Page 1                                    Mon Nov  5 14:01:48 2018

  ******************************************************************
  *                           E P A N E T                          *
  *                   Hydraulic and Water Quality                  *
  *                   Analysis for Pipe Networks                   *
  *                         Version 2.2                            *
  ******************************************************************
  
  function call contains illegal numeric value - section: [RESERVOIRS] id: R128
  
  function call contains illegal numeric value - section: [RESERVOIRS] id: R2772
  
  function call contains illegal numeric value - section: [RESERVOIRS] id: R448
  
  one or more errors in input file